* MOSIS HP 0.8um HSPICE models

.MODEL TN NMOS LEVEL=3 PHI=0.600000 TOX=2.0300E-08 XJ=0.150000U TPG=1
+ VTO=0.7333 DELTA=9.4450E-01 LD=1.0000E-09 KP=1.2964E-04 
+ UO=762.1 THETA=5.2460E-02 RSH=2.3650E+00 GAMMA=0.4481 
+ NSUB=1.7500E+16 NFS=2.3560E+12 VMAX=1.4870E+05 ETA=1.4850E-01 
+ KAPPA=9.5100E-02 CGDO=2.5516E-12 CGSO=2.5516E-12 
+ CGBO=3.0108E-10 CJ=1.1962E-04 MJ=0.4398 CJSW=4.6935E-10 
+ MJSW=0.123994 PB=0.800000
* Weff = Wdrawn - Delta_W
* The suggested Delta_W is 2.4780E-07
.MODEL TP PMOS LEVEL=3 PHI=0.600000 TOX=2.0300E-08 XJ=0.150000U TPG=-1
+ VTO=-0.9679 DELTA=4.3070E-01 LD=1.0000E-09 KP=4.3207E-05 
+ UO=254.0 THETA=1.7060E-01 RSH=2.5530E+00 GAMMA=0.4970 
+ NSUB=2.1530E+16 NFS=4.5660E+12 VMAX=1.8200E+05 ETA=1.8290E-01 
+ KAPPA=3.2250E+00 CGDO=2.5516E-12 CGSO=2.5516E-12 
+ CGBO=3.5207E-10 CJ=5.3093E-04 MJ=0.5074 CJSW=7.8757E-11 
+ MJSW=0.077193 PB=0.850000
* Weff = Wdrawn - Delta_W
* The suggested Delta_W is 3.9200E-07
