* MOSIS IBM 0.8um HSPICE models
 
.MODEL TN NMOS LEVEL=3 PHI=0.600000 TOX=2.2400E-08 XJ=0.200000U TPG=1
+ VTO=0.6460 DELTA=1.7600E+00 LD=4.0000E-08 KP=1.1870E-04 
+ UO=770.0 THETA=1.0000E-06 RSH=4.3850E+00 GAMMA=0.1074 
+ NSUB=8.2640E+14 NFS=4.8230E+12 VMAX=1.9590E+05 ETA=1.2100E-02 
+ KAPPA=1.1590E-01 CGDO=9.2495E-11 CGSO=9.2495E-11 
+ CGBO=6.8256E-10 CJ=2.0034E-04 MJ=0.9085 CJSW=1.6545E-10 
+ MJSW=0.895750 PB=0.800000
* Weff = Wdrawn - Delta_W
* The suggested Delta_W is 6.7520E-07
.MODEL TP PMOS LEVEL=3 PHI=0.600000 TOX=2.2400E-08 XJ=0.200000U TPG=-1
+ VTO=-0.8418 DELTA=1.0850E+00 LD=1.0000E-09 KP=3.8216E-05 
+ UO=247.9 THETA=2.2790E-02 RSH=3.2140E+00 GAMMA=0.5341 
+ NSUB=2.0420E+16 NFS=5.5000E+12 VMAX=1.3380E+05 ETA=3.8750E-02 
+ KAPPA=2.3650E-01 CGDO=2.3124E-12 CGSO=2.3124E-12 
+ CGBO=7.2160E-10 CJ=6.0854E-04 MJ=0.5410 CJSW=1.3620E-10 
+ MJSW=0.405396 PB=0.850000
* Weff = Wdrawn - Delta_W
* The suggested Delta_W is 7.6140E-07
