* Custom model libraries include file.
* Generated Apr 16 13:52:46 2016 by c5 tool.

simulator lang=spectre

* End of custom model libraries include file.
