* Custom model libraries include file.
* Generated Apr 17 22:08:55 2016 by c5 tool.

simulator lang=spectre

* End of custom model libraries include file.
